*version 9.2 176991061
u 755
R? 21
V? 5
Q? 7
? 28
C? 4
@libraries
@analysis
.AC 1 3 0
+0 1001
+1 1
+2 5000K
.TRAN 0 0 0 0
+0 0ms
+1 10ms
+3 10us
@targets
@attributes
@translators
a 0 u 13 0 0 0 hln 100 PCBOARDS=PCB
a 0 u 13 0 0 0 hln 100 PSPICE=PSPICE
a 0 u 13 0 0 0 hln 100 XILINX=XILINX
@setup
unconnectedPins 0
connectViaLabel 0
connectViaLocalLabels 0
NoStim4ExtIFPortsWarnings 1
AutoGenStim4ExtIFPorts 1
@index
pageloc 1 0 9168 
@status
n 0 124:11:13:23:11:51;1734120711 e 
s 2832 124:11:13:23:11:51;1734120711 e 
c 124:11:13:23:11:50;1734120710
*page 1 0 1520 970 iB
@ports
port 442 AGND 570 280 h
@parts
part 5 BC548A 300 140 h
a 0 sp 11 0 25 40 hln 100 PART=BC548A
a 0 s 0:13 0 0 0 hln 100 PKGTYPE=TO-92-18B
a 0 s 0:13 0 0 0 hln 100 GATE=
a 0 a 0:13 0 0 0 hln 100 PKGREF=Q1
a 0 ap 9 0 5 5 hln 100 REFDES=Q1
part 358 BC548A 440 140 h
a 0 sp 11 0 25 40 hln 100 PART=BC548A
a 0 s 0:13 0 0 0 hln 100 PKGTYPE=TO-92-18B
a 0 s 0:13 0 0 0 hln 100 GATE=
a 0 a 0:13 0 0 0 hln 100 PKGREF=Q3
a 0 ap 9 0 5 5 hln 100 REFDES=Q3
part 116 VDC 90 170 h
a 0 sp 0 0 22 37 hln 100 PART=VDC
a 1 u 13 0 21 36 hcn 100 DC=18V
a 0 x 0:13 0 0 0 hln 100 PKGREF=V1
a 1 xp 9 0 22 11 hcn 100 REFDES=V1
part 2 R 280 100 v
a 0 x 0:13 0 0 0 hln 100 PKGREF=R1
a 0 xp 9 0 23 28 hln 100 REFDES=R1
a 0 u 13 0 15 31 hln 100 VALUE=43k
a 0 sp 0 0 0 10 hlb 100 PART=R
a 0 s 0:13 0 0 0 hln 100 PKGTYPE=RC05
a 0 s 0:13 0 0 0 hln 100 GATE=
part 65 R 280 260 v
a 0 x 0:13 0 0 0 hln 100 PKGREF=R2
a 0 xp 9 0 23 28 hln 100 REFDES=R2
a 0 u 13 0 15 33 hln 100 VALUE=4.3k
a 0 sp 0 0 0 10 hlb 100 PART=R
a 0 s 0:13 0 0 0 hln 100 PKGTYPE=RC05
a 0 s 0:13 0 0 0 hln 100 GATE=
part 3 R 320 100 v
a 0 x 0:13 0 0 0 hln 100 PKGREF=R3
a 0 xp 9 0 23 28 hln 100 REFDES=R3
a 0 u 13 0 15 33 hln 100 VALUE=1.8k
a 0 sp 0 0 0 10 hlb 100 PART=R
a 0 s 0:13 0 0 0 hln 100 PKGTYPE=RC05
a 0 s 0:13 0 0 0 hln 100 GATE=
part 633 R 320 200 v
a 0 x 0:13 0 0 0 hln 100 PKGREF=R4
a 0 xp 9 0 21 28 hln 100 REFDES=R4
a 0 sp 0 0 0 10 hlb 100 PART=R
a 0 s 0:13 0 0 0 hln 100 PKGTYPE=RC05
a 0 s 0:13 0 0 0 hln 100 GATE=
a 0 u 13 0 13 31 hln 100 VALUE=150
part 72 R 320 260 v
a 0 x 0:13 0 0 0 hln 100 PKGREF=R5
a 0 xp 9 0 23 28 hln 100 REFDES=R5
a 0 u 13 0 15 27 hln 100 VALUE=30
a 0 sp 0 0 0 10 hlb 100 PART=R
a 0 s 0:13 0 0 0 hln 100 PKGTYPE=RC05
a 0 s 0:13 0 0 0 hln 100 GATE=
part 355 R 420 100 v
a 0 x 0:13 0 0 0 hln 100 PKGREF=R6
a 0 xp 9 0 23 28 hln 100 REFDES=R6
a 0 u 13 0 15 31 hln 100 VALUE=43k
a 0 sp 0 0 0 10 hlb 100 PART=R
a 0 s 0:13 0 0 0 hln 100 PKGTYPE=RC05
a 0 s 0:13 0 0 0 hln 100 GATE=
part 359 R 420 260 v
a 0 x 0:13 0 0 0 hln 100 PKGREF=R7
a 0 xp 9 0 23 28 hln 100 REFDES=R7
a 0 u 13 0 15 33 hln 100 VALUE=4.3k
a 0 sp 0 0 0 10 hlb 100 PART=R
a 0 s 0:13 0 0 0 hln 100 PKGTYPE=RC05
a 0 s 0:13 0 0 0 hln 100 GATE=
part 354 R 460 100 v
a 0 x 0:13 0 0 0 hln 100 PKGREF=R8
a 0 xp 9 0 23 28 hln 100 REFDES=R8
a 0 u 13 0 15 33 hln 100 VALUE=1.8k
a 0 sp 0 0 0 10 hlb 100 PART=R
a 0 s 0:13 0 0 0 hln 100 PKGTYPE=RC05
a 0 s 0:13 0 0 0 hln 100 GATE=
part 361 R 460 210 v
a 0 xp 9 0 23 28 hln 100 REFDES=R9
a 0 u 13 0 15 27 hln 100 VALUE=30
a 0 sp 0 0 0 10 hlb 100 PART=R
a 0 s 0:13 0 0 0 hln 100 PKGTYPE=RC05
a 0 s 0:13 0 0 0 hln 100 GATE=
a 0 x 0:13 0 0 0 hln 100 PKGREF=R9
part 127 VSIN 160 170 h
a 1 u 0 0 0 0 hcn 100 VAMPL=18m
a 1 u 0 0 0 0 hcn 100 DC=0
a 0 x 0:13 0 0 0 hln 100 PKGREF=V2
a 1 xp 9 0 20 10 hcn 100 REFDES=V2
a 1 u 0 0 0 0 hcn 100 VOFF=0
a 1 u 0 0 0 0 hcn 100 FREQ=1800
a 1 u 0 0 0 0 hcn 100 AC=18m
part 90 c 350 260 v
a 0 u 13 0 9 35 hln 100 VALUE=100u
a 0 sp 0 0 0 10 hlb 100 PART=c
a 0 s 0:13 0 0 0 hln 100 PKGTYPE=CK05
a 0 s 0:13 0 0 0 hln 100 GATE=
a 0 x 0:13 0 0 0 hln 100 PKGREF=C3
a 0 xp 9 0 19 28 hln 100 REFDES=C3
part 357 c 490 260 v
a 0 u 13 0 9 35 hln 100 VALUE=100u
a 0 x 0:13 0 0 0 hln 100 PKGREF=C5
a 0 sp 0 0 0 10 hlb 100 PART=c
a 0 s 0:13 0 0 0 hln 100 PKGTYPE=CK05
a 0 s 0:13 0 0 0 hln 100 GATE=
a 0 xp 9 0 19 28 hln 100 REFDES=C5
part 360 R 460 260 v
a 0 u 13 0 15 31 hln 100 VALUE=150
a 0 x 0:13 0 0 0 hln 100 PKGREF=R10
a 0 sp 0 0 0 10 hlb 100 PART=R
a 0 s 0:13 0 0 0 hln 100 PKGTYPE=RC05
a 0 s 0:13 0 0 0 hln 100 GATE=
a 0 xp 9 0 23 32 hln 100 REFDES=R10
part 486 R 570 130 d
a 0 x 0:13 0 0 0 hln 100 PKGREF=Rn
a 0 xp 9 0 17 4 hln 100 REFDES=Rn
a 0 u 13 0 25 5 hln 100 VALUE=1.9k
a 0 sp 0 0 0 10 hlb 100 PART=R
a 0 s 0:13 0 0 0 hln 100 PKGTYPE=RC05
a 0 s 0:13 0 0 0 hln 100 GATE=
part 128 R 210 140 u
a 0 x 0:13 0 0 0 hln 100 PKGREF=Ro
a 0 xp 9 0 31 22 hln 100 REFDES=Ro
a 0 u 13 0 17 21 hln 100 VALUE=80
a 0 sp 0 0 0 10 hlb 100 PART=R
a 0 s 0:13 0 0 0 hln 100 PKGTYPE=RC05
a 0 s 0:13 0 0 0 hln 100 GATE=
part 129 c 260 140 u
a 0 sp 0 0 0 10 hlb 100 PART=c
a 0 s 0:13 0 0 0 hln 100 PKGTYPE=CK05
a 0 s 0:13 0 0 0 hln 100 GATE=
a 0 x 0:13 0 0 0 hln 100 PKGREF=C1
a 0 xp 9 0 29 20 hln 100 REFDES=C1
a 0 u 13 0 11 19 hln 100 VALUE=510n
part 229 c 340 110 h
a 0 sp 0 0 0 10 hlb 100 PART=c
a 0 s 0:13 0 0 0 hln 100 PKGTYPE=CK05
a 0 s 0:13 0 0 0 hln 100 GATE=
a 0 x 0:13 0 0 0 hln 100 PKGREF=C2
a 0 xp 9 0 1 6 hln 100 REFDES=C2
a 0 u 13 0 19 7 hln 100 VALUE=510n
part 356 c 480 110 h
a 0 sp 0 0 0 10 hlb 100 PART=c
a 0 s 0:13 0 0 0 hln 100 PKGTYPE=CK05
a 0 s 0:13 0 0 0 hln 100 GATE=
a 0 x 0:13 0 0 0 hln 100 PKGREF=C4
a 0 xp 9 0 1 6 hln 100 REFDES=C4
a 0 u 13 0 19 7 hln 100 VALUE=510n
part 1 titleblk 1520 970 h
a 1 s 13 0 350 10 hcn 100 PAGESIZE=B
a 1 s 13 0 180 60 hcn 100 PAGETITLE=
a 1 s 13 0 340 95 hrn 100 PAGECOUNT=1
a 1 s 13 0 300 95 hrn 100 PAGENO=1
part 743 nodeMarker 570 110 h
a 0 s 0 0 0 0 hln 100 PROBEVAR=Rn:1
a 0 a 0 0 4 22 hlb 100 LABEL=26
@conn
w 74
a 0 up 0:33 0 0 0 hln 100 V=
s 320 210 350 210 95
a 0 up 33 0 353 191 hct 100 V=
s 350 210 350 230 98
s 320 220 320 210 79
s 320 210 320 200 631
a 0 up 33 0 330 165 hlt 100 V=
w 311
a 0 up 0:33 0 0 0 hln 100 V=
s 460 110 480 110 314
s 460 110 460 100 636
s 460 120 460 110 316
a 0 up 33 0 464 108 hlt 100 V=
w 332
a 0 up 0:33 0 0 0 hln 100 V=
s 460 170 460 160 331
a 0 up 33 0 462 165 hlt 100 V=
w 334
a 0 up 0:33 0 0 0 hln 100 V=
s 460 210 490 210 333
a 0 up 33 0 477 207 hct 100 V=
s 490 210 490 230 335
s 460 220 460 210 337
w 722
a 0 up 0:33 0 0 0 hln 100 V=
s 280 50 320 50 24
s 280 60 280 50 16
s 320 50 320 60 38
s 420 50 320 50 657
s 420 60 420 50 319
s 420 50 460 50 317
s 460 50 460 60 321
s 280 50 90 50 120
a 0 up 33 0 185 49 hct 100 V=
s 90 50 90 170 122
w 11
a 0 up 0:33 0 0 0 hln 100 V=
s 320 120 320 110 228
a 0 up 33 0 294 98 hlt 100 V=
s 320 110 320 100 736
s 320 110 340 110 231
w 142
a 0 up 0:33 0 0 0 hln 100 V=
s 170 140 160 140 141
s 160 140 160 170 143
a 0 up 33 0 164 155 hlt 100 V=
w 748
a 0 up 0:33 0 0 0 hln 100 V=
s 490 270 490 260 341
s 460 270 490 270 347
s 420 270 460 270 343
s 460 260 460 270 345
s 420 270 350 270 658
s 420 260 420 270 348
s 320 270 350 270 279
s 350 270 350 260 93
s 280 270 320 270 281
s 320 260 320 270 80
s 280 260 280 270 85
s 160 270 280 270 729
s 90 270 160 270 147
a 0 up 33 0 295 275 hct 100 V=
s 160 210 160 270 145
s 90 210 90 270 204
s 490 270 570 270 449
s 570 270 570 170 488
s 570 270 570 280 482
w 404
a 0 up 0:33 0 0 0 hln 100 V=
s 570 110 510 110 693
s 570 130 570 110 445
a 0 up 33 0 572 120 hlt 100 V=
w 13
a 0 up 0:33 0 0 0 hln 100 V=
s 280 140 300 140 14
s 280 100 280 140 12
a 0 up 33 0 250 146 hlt 100 V=
s 280 140 280 220 83
s 260 140 280 140 138
w 137
a 0 up 0:33 0 0 0 hln 100 V=
s 230 140 210 140 750
a 0 up 33 0 227 147 hct 100 V=
w 235
a 0 up 0:33 0 0 0 hln 100 V=
s 420 140 440 140 682
s 420 100 420 140 325
a 0 up 33 0 374 98 hlt 100 V=
s 420 140 420 220 329
s 390 110 390 140 382
s 370 110 390 110 741
a 0 up 33 0 372 131 hct 100 V=
s 390 140 420 140 754
@junction
j 300 140
+ p 5 b
+ w 13
j 280 140
+ w 13
+ w 13
j 320 50
+ w 722
+ w 722
j 320 60
+ p 3 2
+ w 722
j 320 270
+ w 748
+ w 748
j 280 270
+ w 748
+ w 748
j 350 270
+ w 748
+ w 748
j 280 100
+ p 2 1
+ w 13
j 280 60
+ p 2 2
+ w 722
j 280 220
+ p 65 2
+ w 13
j 320 210
+ w 74
+ w 74
j 320 220
+ p 72 2
+ w 74
j 320 160
+ p 633 2
+ p 5 e
j 320 200
+ p 633 1
+ w 74
j 420 60
+ p 355 2
+ w 722
j 460 60
+ p 354 2
+ w 722
j 420 50
+ w 722
+ w 722
j 420 270
+ w 748
+ w 748
j 460 270
+ w 748
+ w 748
j 460 100
+ p 354 1
+ w 311
j 460 120
+ p 358 c
+ w 311
j 460 110
+ w 311
+ w 311
j 460 160
+ p 358 e
+ w 332
j 460 170
+ p 361 2
+ w 332
j 460 210
+ p 361 1
+ w 334
j 460 220
+ p 360 2
+ w 334
j 280 260
+ p 65 1
+ w 748
j 320 260
+ p 72 1
+ w 748
j 420 260
+ p 359 1
+ w 748
j 460 260
+ p 360 1
+ w 748
j 280 50
+ w 722
+ w 722
j 90 170
+ p 116 +
+ w 722
j 90 210
+ p 116 -
+ w 748
j 160 270
+ w 748
+ w 748
j 170 140
+ p 128 2
+ w 142
j 490 230
+ p 357 2
+ w 334
j 490 260
+ p 357 1
+ w 748
j 350 230
+ p 90 2
+ w 74
j 350 260
+ p 90 1
+ w 748
j 160 210
+ p 127 -
+ w 748
j 160 170
+ p 127 +
+ w 142
j 320 120
+ p 5 c
+ w 11
j 320 100
+ p 3 1
+ w 11
j 320 110
+ w 11
+ w 11
j 440 140
+ p 358 b
+ w 235
j 420 100
+ p 355 1
+ w 235
j 420 140
+ w 235
+ w 235
j 420 220
+ p 359 2
+ w 235
j 490 270
+ w 748
+ w 748
j 570 110
+ p 743 pin1
+ w 404
j 570 130
+ p 486 1
+ w 404
j 570 170
+ p 486 2
+ w 748
j 570 280
+ s 442
+ w 748
j 570 270
+ w 748
+ w 748
j 210 140
+ p 128 1
+ w 137
j 480 110
+ p 356 1
+ w 311
j 510 110
+ p 356 2
+ w 404
j 340 110
+ p 229 1
+ w 11
j 370 110
+ p 229 2
+ w 235
j 260 140
+ p 129 1
+ w 13
j 230 140
+ p 129 2
+ w 137
@attributes
a 0 s 0:13 0 0 0 hln 100 PAGETITLE=
a 0 s 0:13 0 0 0 hln 100 PAGENO=1
a 0 s 0:13 0 0 0 hln 100 PAGESIZE=B
a 0 s 0:13 0 0 0 hln 100 PAGECOUNT=1
@graphics
t 691 t 5 410 276 473 290 0 13
Второй каскад
r 690 r 0 410 40 520 290
t 648 t 5 270 276 335 290 0 13
Первый каскад
r 647 r 0 270 40 380 290
r 708 r 0 40 160 110 220
t 709 t 5 40 206 80 220 0 7
Питание
t 715 t 5 120 206 163 220 0 8
Источник
r 710 r 0 120 110 220 220
t 703 t 5 530 166 572 180 0 8
Нагрузка
r 702 r 0 530 120 600 180
